@<TRIPOS>MOLECULE
****
27 30 1 0 0
SMALL
USER_CHARGES


@<TRIPOS>ATOM
      1 C          -1.6222   -0.4908   -0.1830 C.ar      1     ****    0.0000
      2 C          -0.7287   -1.3882    0.2858 C.ar      1     ****    0.0000
      3 C           0.5574   -1.1023    0.5398 C.ar      1     ****    0.0000
      4 C           1.1095    0.1162    0.3565 C.ar      1     ****    0.0000
      5 C           0.2227    1.0236   -0.1125 C.ar      1     ****    0.0000
      6 C          -1.0798    0.7341   -0.3698 C.ar      1     ****    0.0000
      7 N           0.5155    2.2314   -0.3588 N.ar      1     ****    0.0000
      8 S          -0.7942    3.1440   -0.9378 S.2       1     ****    0.0000
      9 N          -1.7287    1.7327   -0.8022 N.ar      1     ****    0.0000
     10 C          -2.9153   -0.8387   -0.4229 C.ar      1     ****    0.0000
     11 C           2.4217    0.3473    0.6311 C.ar      1     ****    0.0000
     12 C          -3.9296   -0.0814   -0.8866 C.ar      1     ****    0.0000
     13 C          -5.0697   -0.7702   -0.9965 C.ar      1     ****    0.0000
     14 C          -4.8368   -2.0222   -0.6021 C.ar      1     ****    0.0000
     15 S          -3.4466   -2.2027   -0.1956 S.2       1     ****    0.0000
     16 S           3.3411   -0.6946    1.1441 S.2       1     ****    0.0000
     17 C           4.5794    0.0697    1.2570 C.ar      1     ****    0.0000
     18 C           4.4064    1.3353    0.8754 C.ar      1     ****    0.0000
     19 C           3.1303    1.4876    0.5084 C.ar      1     ****    0.0000
     20 H          -1.0047   -2.4363    0.4944 H         1     ****    0.0000
     21 H           1.1409   -1.9595    0.9180 H         1     ****    0.0000
     22 H          -3.9257    0.9767   -1.1684 H         1     ****    0.0000
     23 H          -6.0325   -0.3765   -1.3499 H         1     ****    0.0000
     24 H          -5.5856   -2.8252   -0.5806 H         1     ****    0.0000
     25 H           5.5267   -0.3569    1.6130 H         1     ****    0.0000
     26 H           5.1805    2.1149    0.8655 H         1     ****    0.0000
     27 H           2.7973    2.4711    0.1609 H         1     ****    0.0000
@<TRIPOS>BOND
     1     1     2     2
     2     1     6     1
     3     1    10     1
     4     2     3     1
     5     2    20     1
     6     3     4     2
     7     3    21     1
     8     4     5     1
     9     4    11     1
    10     5     6     1
    11     5     7     2
    12     6     9     2
    13     7     8     1
    14     8     9     1
    15    10    12     2
    16    10    15     1
    17    11    16     1
    18    11    19     2
    19    12    13     1
    20    12    22     1
    21    13    14     2
    22    13    23     1
    23    14    15     1
    24    14    24     1
    25    16    17     1
    26    17    18     2
    27    17    25     1
    28    18    19     1
    29    18    26     1
    30    19    27     1
