@<TRIPOS>MOLECULE
****
56 60 1 0 0
SMALL
USER_CHARGES


@<TRIPOS>ATOM
      1 C           2.8881    0.2619   -0.2879 C.ar      1     ****    0.0000
      2 C           2.5169   -1.0032   -0.0277 C.ar      1     ****    0.0000
      3 C           1.2403   -1.3175    0.2676 C.ar      1     ****    0.0000
      4 C           0.3969   -0.2643    0.2732 C.ar      1     ****    0.0000
      5 C           0.7681    1.0009    0.0132 C.ar      1     ****    0.0000
      6 C           2.0451    1.3154   -0.2805 C.ar      1     ****    0.0000
      7 C           4.2029    0.2822   -0.5466 C.ar      1     ****    0.0000
      8 C           4.7309   -0.9492   -0.4673 C.ar      1     ****    0.0000
      9 S           3.6702   -1.9023   -0.1190 S.2       1     ****    0.0000
     10 C          -0.9186   -0.2850    0.5286 C.ar      1     ****    0.0000
     11 C          -1.4468    0.9461    0.4475 C.ar      1     ****    0.0000
     12 S          -0.3855    1.8998    0.1025 S.2       1     ****    0.0000
     13 C           2.6086    2.6982   -0.5949 C.3       1     ****    0.0000
     14 C           1.7327    3.9610   -0.6150 C.3       1     ****    0.0000
     15 C           2.5512    5.2190   -0.9603 C.3       1     ****    0.0000
     16 C           1.6755    6.4794   -0.9822 C.3       1     ****    0.0000
     17 C           0.6774   -2.7000    0.5848 C.3       1     ****    0.0000
     18 C           1.5587   -3.9583    0.6326 C.3       1     ****    0.0000
     19 C           0.7427   -5.2143    0.9907 C.3       1     ****    0.0000
     20 C           1.6237   -6.4702    1.0410 C.3       1     ****    0.0000
     21 C           6.0188   -1.3017   -0.6670 C.ar      1     ****    0.0000
     22 C          -2.7356    1.2980    0.6427 C.ar      1     ****    0.0000
     23 C           6.5285   -2.5444   -0.5834 C.ar      1     ****    0.0000
     24 C           7.8395   -2.5317   -0.8421 C.ar      1     ****    0.0000
     25 C           8.2030   -1.2719   -1.0993 C.ar      1     ****    0.0000
     26 S           7.0799   -0.3374   -1.0170 S.2       1     ****    0.0000
     27 C          -3.2458    2.5404    0.5569 C.ar      1     ****    0.0000
     28 C          -4.5577    2.5269    0.8106 C.ar      1     ****    0.0000
     29 C          -4.9214    1.2670    1.0667 C.ar      1     ****    0.0000
     30 S          -3.7973    0.3332    0.9891 S.2       1     ****    0.0000
     31 H           4.7743    1.1876   -0.7922 H         1     ****    0.0000
     32 H          -1.4904   -1.1907    0.7719 H         1     ****    0.0000
     33 H           3.4184    2.8914    0.1508 H         1     ****    0.0000
     34 H           3.0807    2.6299   -1.6056 H         1     ****    0.0000
     35 H           0.9301    3.8578   -1.3836 H         1     ****    0.0000
     36 H           1.2708    4.1227    0.3880 H         1     ****    0.0000
     37 H           3.3679    5.3551   -0.2115 H         1     ****    0.0000
     38 H           3.0341    5.0929   -1.9589 H         1     ****    0.0000
     39 H           2.2797    7.3818   -1.2323 H         1     ****    0.0000
     40 H           0.8655    6.3932   -1.7422 H         1     ****    0.0000
     41 H           1.1989    6.6553    0.0092 H         1     ****    0.0000
     42 H           0.1911   -2.6250    1.5883 H         1     ****    0.0000
     43 H          -0.1213   -2.9027   -0.1702 H         1     ****    0.0000
     44 H           2.0301   -4.1345   -0.3635 H         1     ****    0.0000
     45 H           2.3541   -3.8387    1.4063 H         1     ****    0.0000
     46 H           0.2503   -5.0746    1.9829 H         1     ****    0.0000
     47 H          -0.0668   -5.3660    0.2369 H         1     ****    0.0000
     48 H           1.0212   -7.3710    1.3006 H         1     ****    0.0000
     49 H           2.1099   -6.6600    0.0569 H         1     ****    0.0000
     50 H           2.4264   -6.3679    1.8067 H         1     ****    0.0000
     51 H           5.9813   -3.4664   -0.3404 H         1     ****    0.0000
     52 H           8.5040   -3.4062   -0.8435 H         1     ****    0.0000
     53 H           9.2266   -0.9589   -1.3462 H         1     ****    0.0000
     54 H          -2.6982    3.4626    0.3156 H         1     ****    0.0000
     55 H          -5.2229    3.4009    0.8090 H         1     ****    0.0000
     56 H          -5.9458    0.9533    1.3095 H         1     ****    0.0000
@<TRIPOS>BOND
     1     1     2     1
     2     1     6     2
     3     1     7     1
     4     2     3     2
     5     2     9     1
     6     3     4     1
     7     3    17     1
     8     4     5     2
     9     4    10     1
    10     5     6     1
    11     5    12     1
    12     6    13     1
    13     7     8     2
    14     7    31     1
    15     8     9     1
    16     8    21     1
    17    10    11     2
    18    10    32     1
    19    11    12     1
    20    11    22     1
    21    13    14     1
    22    13    33     1
    23    13    34     1
    24    14    15     1
    25    14    35     1
    26    14    36     1
    27    15    16     1
    28    15    37     1
    29    15    38     1
    30    16    39     1
    31    16    40     1
    32    16    41     1
    33    17    18     1
    34    17    42     1
    35    17    43     1
    36    18    19     1
    37    18    44     1
    38    18    45     1
    39    19    20     1
    40    19    46     1
    41    19    47     1
    42    20    48     1
    43    20    49     1
    44    20    50     1
    45    21    23     2
    46    21    26     1
    47    22    27     2
    48    22    30     1
    49    23    24     1
    50    23    51     1
    51    24    25     2
    52    24    52     1
    53    25    26     1
    54    25    53     1
    55    27    28     1
    56    27    54     1
    57    28    29     2
    58    28    55     1
    59    29    30     1
    60    29    56     1
