@<TRIPOS>MOLECULE
****
42 47 1 0 0
SMALL
USER_CHARGES


@<TRIPOS>ATOM
      1 C          -0.5320    0.9993    0.2131 C.ar      1     ****    0.0000
      2 C          -1.0975   -0.2161    0.1627 C.ar      1     ****    0.0000
      3 C          -2.4311   -0.3719    0.2536 C.ar      1     ****    0.0000
      4 C          -3.1369    0.7650    0.3962 C.ar      1     ****    0.0000
      5 C          -2.5719    1.9841    0.4466 C.ar      1     ****    0.0000
      6 C          -1.2372    2.1369    0.3553 C.ar      1     ****    0.0000
      7 C           0.7943    0.8606    0.1007 C.ar      1     ****    0.0000
      8 C           1.1256   -0.4357   -0.0250 C.ar      1     ****    0.0000
      9 S          -0.0883   -1.2678    0.0034 S.2       1     ****    0.0000
     10 C          -4.4646    0.8925    0.5090 C.ar      1     ****    0.0000
     11 C          -4.7606    2.1908    0.6323 C.ar      1     ****    0.0000
     12 S          -3.5744    3.0484    0.6065 S.2       1     ****    0.0000
     13 C          -0.5292    3.4753    0.4036 C.3       1     ****    0.0000
     14 C          -3.1363   -1.7113    0.2042 C.3       1     ****    0.0000
     15 C           2.3702   -0.9399   -0.1591 C.ar      1     ****    0.0000
     16 C           2.7137   -2.2284   -0.2858 C.ar      1     ****    0.0000
     17 C           4.0406   -2.3398   -0.3952 C.ar      1     ****    0.0000
     18 C           4.6507   -1.1425   -0.3476 C.ar      1     ****    0.0000
     19 S           3.5915   -0.1264   -0.1886 S.2       1     ****    0.0000
     20 C           5.9759   -0.8495   -0.4242 C.ar      1     ****    0.0000
     21 C           6.9624   -1.7673   -0.5707 C.ar      1     ****    0.0000
     22 C           8.2680   -1.4195   -0.6411 C.ar      1     ****    0.0000
     23 C           8.6538   -0.1401   -0.5688 C.ar      1     ****    0.0000
     24 C           7.7040    0.7904   -0.4240 C.ar      1     ****    0.0000
     25 C           6.4117    0.4328   -0.3555 C.ar      1     ****    0.0000
     26 N           6.8218   -3.0237   -0.6595 N.ar      1     ****    0.0000
     27 S           8.2934   -3.8567   -0.8357 S.2       1     ****    0.0000
     28 N           9.1008   -2.3631   -0.7782 N.ar      1     ****    0.0000
     29 H           1.5020    1.7010    0.1116 H         1     ****    0.0000
     30 H          -5.2065    0.0829    0.5041 H         1     ****    0.0000
     31 H          -5.7801    2.5855    0.7420 H         1     ****    0.0000
     32 H           0.0453    3.6407   -0.5362 H         1     ****    0.0000
     33 H          -1.2018    4.3518    0.5179 H         1     ****    0.0000
     34 H           0.1771    3.5057    1.2644 H         1     ****    0.0000
     35 H          -2.4613   -2.5848    0.0812 H         1     ****    0.0000
     36 H          -3.7047   -1.8813    1.1469 H         1     ****    0.0000
     37 H          -3.8482   -1.7395   -0.6520 H         1     ****    0.0000
     38 H           2.0335   -3.0922   -0.3015 H         1     ****    0.0000
     39 H           4.4879   -3.3331   -0.5064 H         1     ****    0.0000
     40 H           9.7174    0.1438   -0.6261 H         1     ****    0.0000
     41 H           7.9928    1.8537   -0.3615 H         1     ****    0.0000
     42 H           5.7254    1.2883   -0.2362 H         1     ****    0.0000
@<TRIPOS>BOND
     1     1     2     1
     2     1     6     2
     3     1     7     1
     4     2     3     2
     5     2     9     1
     6     3     4     1
     7     3    14     1
     8     4     5     2
     9     4    10     1
    10     5     6     1
    11     5    12     1
    12     6    13     1
    13     7     8     2
    14     7    29     1
    15     8     9     1
    16     8    15     1
    17    10    11     2
    18    10    30     1
    19    11    12     1
    20    11    31     1
    21    13    32     1
    22    13    33     1
    23    13    34     1
    24    14    35     1
    25    14    36     1
    26    14    37     1
    27    15    16     2
    28    15    19     1
    29    16    17     1
    30    16    38     1
    31    17    18     2
    32    17    39     1
    33    18    19     1
    34    18    20     1
    35    20    21     1
    36    20    25     2
    37    21    22     1
    38    21    26     2
    39    22    23     1
    40    22    28     2
    41    23    24     2
    42    23    40     1
    43    24    25     1
    44    24    41     1
    45    25    42     1
    46    26    27     1
    47    27    28     1
